glycine
 OpenBabel11091307573D

 10  9  0  0  0  0  0  0  0  0999 V2000
    1.0013   -0.1929   -0.2236 C   0  0  0  0  0  0  0  0  0  0  0  0
    0.3661    0.8495   -1.1414 C   0  0  0  0  0  0  0  0  0  0  0  0
   -0.5672    0.6403   -1.8988 O   0  0  0  0  0  0  0  0  0  0  0  0
    0.9525    2.0654   -0.9857 O   0  0  0  0  0  0  0  0  0  0  0  0
    2.2877    0.3361    0.3041 N   0  0  0  0  0  0  0  0  0  0  0  0
    1.1843   -1.1140   -0.7829 H   0  0  0  0  0  0  0  0  0  0  0  0
    0.3171   -0.3785    0.6088 H   0  0  0  0  0  0  0  0  0  0  0  0
    1.6591    1.9356   -0.3042 H   0  0  0  0  0  0  0  0  0  0  0  0
    3.0021    0.1940   -0.4190 H   0  0  0  0  0  0  0  0  0  0  0  0
    2.5832   -0.2796    1.0675 H   0  0  0  0  0  0  0  0  0  0  0  0
  1  2  1  0  0  0  0
  1  5  1  0  0  0  0
  1  6  1  0  0  0  0
  1  7  1  0  0  0  0
  2  3  2  0  0  0  0
  2  4  1  0  0  0  0
  4  8  1  0  0  0  0
  5  9  1  0  0  0  0
  5 10  1  0  0  0  0
M  END
$$$$
alanine
 OpenBabel11091307573D

 13 12  0  0  1  0  0  0  0  0999 V2000
    1.7034    0.0776   -1.1334 O   0  0  0  0  0  0  0  0  0  0  0  0
    2.2662   -0.0532   -0.0547 C   0  0  0  0  0  0  0  0  0  0  0  0
    2.3664   -1.2541    0.5635 O   0  0  0  0  0  0  0  0  0  0  0  0
    2.9462    1.0931    0.7062 C   0  0  3  0  0  0  0  0  0  0  0  0
    2.6900    1.0179    2.1557 N   0  0  0  0  0  0  0  0  0  0  0  0
    4.4430    1.0813    0.4308 C   0  0  0  0  0  0  0  0  0  0  0  0
    2.8636   -1.1850    1.3978 H   0  0  0  0  0  0  0  0  0  0  0  0
    2.5097    2.0291    0.3403 H   0  0  0  0  0  0  0  0  0  0  0  0
    3.2513    0.3346    2.6506 H   0  0  0  0  0  0  0  0  0  0  0  0
    1.6986    0.8628    2.3401 H   0  0  0  0  0  0  0  0  0  0  0  0
    4.9145    0.1651    0.8050 H   0  0  0  0  0  0  0  0  0  0  0  0
    4.9378    1.9360    0.9044 H   0  0  0  0  0  0  0  0  0  0  0  0
    4.6394    1.1304   -0.6459 H   0  0  0  0  0  0  0  0  0  0  0  0
  1  2  2  0  0  0  0
  2  3  1  0  0  0  0
  2  4  1  0  0  0  0
  3  7  1  0  0  0  0
  4  5  1  0  0  0  0
  4  6  1  0  0  0  0
  4  8  1  0  0  0  0
  5  9  1  0  0  0  0
  5 10  1  0  0  0  0
  6 11  1  0  0  0  0
  6 12  1  0  0  0  0
  6 13  1  0  0  0  0
M  END
$$$$
valine
 OpenBabel11091307573D

 19 18  0  0  1  0  0  0  0  0999 V2000
    0.9757    0.3786    0.1232 C   0  0  0  0  0  0  0  0  0  0  0  0
    2.4392   -0.0748    0.1606 C   0  0  0  0  0  0  0  0  0  0  0  0
    2.7592   -0.6636    1.5384 C   0  0  0  0  0  0  0  0  0  0  0  0
    2.7713   -1.0130   -1.0214 C   0  0  1  0  0  0  0  0  0  0  0  0
    2.5506   -0.4934   -1.9626 H   0  0  0  0  0  0  0  0  0  0  0  0
    4.2717   -1.3643   -1.0986 C   0  0  0  0  0  0  0  0  0  0  0  0
    5.1972   -0.6158   -0.8255 O   0  0  0  0  0  0  0  0  0  0  0  0
    4.4474   -2.6310   -1.5622 O   0  0  0  0  0  0  0  0  0  0  0  0
    1.9932   -2.2880   -1.0439 N   0  0  0  0  0  0  0  0  0  0  0  0
    0.7868    1.1338    0.8940 H   0  0  0  0  0  0  0  0  0  0  0  0
    0.2878   -0.4544    0.3018 H   0  0  0  0  0  0  0  0  0  0  0  0
    0.7302    0.8249   -0.8460 H   0  0  0  0  0  0  0  0  0  0  0  0
    3.0574    0.8264    0.0488 H   0  0  0  0  0  0  0  0  0  0  0  0
    2.1715   -1.5620    1.7494 H   0  0  0  0  0  0  0  0  0  0  0  0
    2.5347    0.0669    2.3243 H   0  0  0  0  0  0  0  0  0  0  0  0
    3.8199   -0.9177    1.6266 H   0  0  0  0  0  0  0  0  0  0  0  0
    3.5361   -2.9962   -1.6935 H   0  0  0  0  0  0  0  0  0  0  0  0
    1.0092   -2.0523   -1.2015 H   0  0  0  0  0  0  0  0  0  0  0  0
    2.0063   -2.6954   -0.1038 H   0  0  0  0  0  0  0  0  0  0  0  0
  1  2  1  0  0  0  0
  1 10  1  0  0  0  0
  1 11  1  0  0  0  0
  1 12  1  0  0  0  0
  2  3  1  0  0  0  0
  2  4  1  0  0  0  0
  2 13  1  0  0  0  0
  3 14  1  0  0  0  0
  3 15  1  0  0  0  0
  3 16  1  0  0  0  0
  4  5  1  6  0  0  0
  4  6  1  0  0  0  0
  4  9  1  0  0  0  0
  6  7  2  0  0  0  0
  6  8  1  0  0  0  0
  8 17  1  0  0  0  0
  9 18  1  0  0  0  0
  9 19  1  0  0  0  0
M  END
$$$$
leucine
 OpenBabel11091307573D

 22 21  0  0  1  0  0  0  0  0999 V2000
    1.0063    0.1212    0.1411 C   0  0  0  0  0  0  0  0  0  0  0  0
    2.5298    0.2653    0.0740 C   0  0  0  0  0  0  0  0  0  0  0  0
    2.9880    1.3475    1.0529 C   0  0  0  0  0  0  0  0  0  0  0  0
    3.1919   -1.1007    0.3490 C   0  0  0  0  0  0  0  0  0  0  0  0
    4.7263   -1.1198    0.3208 C   0  0  1  0  0  0  0  0  0  0  0  0
    5.1416   -0.4716    1.1002 H   0  0  0  0  0  0  0  0  0  0  0  0
    5.2619   -2.5362    0.6150 C   0  0  0  0  0  0  0  0  0  0  0  0
    4.7733   -3.3410    1.3951 O   0  0  0  0  0  0  0  0  0  0  0  0
    6.3967   -2.7797   -0.0950 O   0  0  0  0  0  0  0  0  0  0  0  0
    5.2850   -0.6864   -0.9931 N   0  0  0  0  0  0  0  0  0  0  0  0
    0.5148    1.0679   -0.1074 H   0  0  0  0  0  0  0  0  0  0  0  0
    0.6785   -0.1772    1.1428 H   0  0  0  0  0  0  0  0  0  0  0  0
    0.6545   -0.6327   -0.5710 H   0  0  0  0  0  0  0  0  0  0  0  0
    2.7821    0.5912   -0.9423 H   0  0  0  0  0  0  0  0  0  0  0  0
    2.8925    1.0120    2.0911 H   0  0  0  0  0  0  0  0  0  0  0  0
    2.3902    2.2584    0.9373 H   0  0  0  0  0  0  0  0  0  0  0  0
    4.0327    1.6219    0.8773 H   0  0  0  0  0  0  0  0  0  0  0  0
    2.8102   -1.8330   -0.3760 H   0  0  0  0  0  0  0  0  0  0  0  0
    2.8586   -1.4608    1.3323 H   0  0  0  0  0  0  0  0  0  0  0  0
    6.5403   -1.9749   -0.6543 H   0  0  0  0  0  0  0  0  0  0  0  0
    5.0573    0.3035   -1.1227 H   0  0  0  0  0  0  0  0  0  0  0  0
    4.7581   -1.1627   -1.7338 H   0  0  0  0  0  0  0  0  0  0  0  0
  1  2  1  0  0  0  0
  1 11  1  0  0  0  0
  1 12  1  0  0  0  0
  1 13  1  0  0  0  0
  2  3  1  0  0  0  0
  2  4  1  0  0  0  0
  2 14  1  0  0  0  0
  3 15  1  0  0  0  0
  3 16  1  0  0  0  0
  3 17  1  0  0  0  0
  4  5  1  0  0  0  0
  4 18  1  0  0  0  0
  4 19  1  0  0  0  0
  5  6  1  1  0  0  0
  5  7  1  0  0  0  0
  5 10  1  0  0  0  0
  7  8  2  0  0  0  0
  7  9  1  0  0  0  0
  9 20  1  0  0  0  0
 10 21  1  0  0  0  0
 10 22  1  0  0  0  0
M  END
$$$$
isoleucine
 OpenBabel11091307573D

 22 21  0  0  1  0  0  0  0  0999 V2000
    0.8108    1.7080   -2.5353 C   0  0  0  0  0  0  0  0  0  0  0  0
    1.9017    2.6055   -1.9549 C   0  0  0  0  0  0  0  0  0  0  0  0
    2.7402    1.9180   -0.8534 C   0  0  2  0  0  0  0  0  0  0  0  0
    3.1173    0.9764   -1.2763 H   0  0  0  0  0  0  0  0  0  0  0  0
    1.8732    1.5458    0.3586 C   0  0  0  0  0  0  0  0  0  0  0  0
    3.9871    2.7273   -0.4082 C   0  0  1  0  0  0  0  0  0  0  0  0
    4.6067    2.0895    0.2355 H   0  0  0  0  0  0  0  0  0  0  0  0
    4.9087    3.1173   -1.5863 C   0  0  0  0  0  0  0  0  0  0  0  0
    5.1328    2.4420   -2.5728 O   0  0  0  0  0  0  0  0  0  0  0  0
    5.4894    4.3291   -1.3598 O   0  0  0  0  0  0  0  0  0  0  0  0
    3.6946    3.9632    0.3791 N   0  0  0  0  0  0  0  0  0  0  0  0
    0.3629    2.1829   -3.4148 H   0  0  0  0  0  0  0  0  0  0  0  0
    0.0080    1.5290   -1.8143 H   0  0  0  0  0  0  0  0  0  0  0  0
    1.2173    0.7409   -2.8498 H   0  0  0  0  0  0  0  0  0  0  0  0
    1.4437    3.5259   -1.5768 H   0  0  0  0  0  0  0  0  0  0  0  0
    2.5521    2.8947   -2.7873 H   0  0  0  0  0  0  0  0  0  0  0  0
    2.4846    1.1104    1.1563 H   0  0  0  0  0  0  0  0  0  0  0  0
    1.1159    0.8024    0.0912 H   0  0  0  0  0  0  0  0  0  0  0  0
    1.3530    2.4194    0.7660 H   0  0  0  0  0  0  0  0  0  0  0  0
    5.1247    4.6421   -0.4940 H   0  0  0  0  0  0  0  0  0  0  0  0
    3.3119    3.6749    1.2844 H   0  0  0  0  0  0  0  0  0  0  0  0
    2.9266    4.4675   -0.0736 H   0  0  0  0  0  0  0  0  0  0  0  0
  1  2  1  0  0  0  0
  1 12  1  0  0  0  0
  1 13  1  0  0  0  0
  1 14  1  0  0  0  0
  2 15  1  0  0  0  0
  2 16  1  0  0  0  0
  3  5  1  0  0  0  0
  3  6  1  0  0  0  0
  3  4  1  6  0  0  0
  3  2  1  0  0  0  0
  5 17  1  0  0  0  0
  5 18  1  0  0  0  0
  5 19  1  0  0  0  0
  6  7  1  1  0  0  0
  6  8  1  0  0  0  0
  6 11  1  0  0  0  0
  8  9  2  0  0  0  0
  8 10  1  0  0  0  0
 10 20  1  0  0  0  0
 11 21  1  0  0  0  0
 11 22  1  0  0  0  0
M  END
$$$$
proline
 OpenBabel11091307573D

 17 17  0  0  1  0  0  0  0  0999 V2000
    2.1499    0.7882   -0.6718 O   0  0  0  0  0  0  0  0  0  0  0  0
    2.2719   -0.1293    0.3088 C   0  0  0  0  0  0  0  0  0  0  0  0
    1.6073   -1.1548    0.2792 O   0  0  0  0  0  0  0  0  0  0  0  0
    3.3329    0.2380    1.3489 C   0  0  3  0  0  0  0  0  0  0  0  0
    3.0466    1.5800    2.0217 C   0  0  0  0  0  0  0  0  0  0  0  0
    2.9108    1.2610    3.5028 C   0  0  0  0  0  0  0  0  0  0  0  0
    2.5310   -0.2031    3.5194 C   0  0  0  0  0  0  0  0  0  0  0  0
    3.3557   -0.7592    2.4495 N   0  0  0  0  0  0  0  0  0  0  0  0
    1.4753    0.4050   -1.2711 H   0  0  0  0  0  0  0  0  0  0  0  0
    4.3059    0.2322    0.8466 H   0  0  0  0  0  0  0  0  0  0  0  0
    2.1194    2.0363    1.6566 H   0  0  0  0  0  0  0  0  0  0  0  0
    3.8599    2.2953    1.8591 H   0  0  0  0  0  0  0  0  0  0  0  0
    2.1665    1.8934    3.9956 H   0  0  0  0  0  0  0  0  0  0  0  0
    3.8733    1.4130    4.0071 H   0  0  0  0  0  0  0  0  0  0  0  0
    1.4658   -0.3346    3.2961 H   0  0  0  0  0  0  0  0  0  0  0  0
    2.7479   -0.6749    4.4816 H   0  0  0  0  0  0  0  0  0  0  0  0
    2.9503   -1.6389    2.1166 H   0  0  0  0  0  0  0  0  0  0  0  0
  1  2  1  0  0  0  0
  1  9  1  0  0  0  0
  2  3  2  0  0  0  0
  2  4  1  0  0  0  0
  4  5  1  0  0  0  0
  4  8  1  0  0  0  0
  4 10  1  0  0  0  0
  5  6  1  0  0  0  0
  5 11  1  0  0  0  0
  5 12  1  0  0  0  0
  6  7  1  0  0  0  0
  6 13  1  0  0  0  0
  6 14  1  0  0  0  0
  7  8  1  0  0  0  0
  7 15  1  0  0  0  0
  7 16  1  0  0  0  0
  8 17  1  0  0  0  0
M  END
$$$$
phenylalanine
 OpenBabel11091307573D

 23 23  0  0  1  0  0  0  0  0999 V2000
   -2.1681   -1.9882    0.2549 C   0  0  0  0  0  0  0  0  0  0  0  0
   -1.3997   -1.8382    1.4063 C   0  0  0  0  0  0  0  0  0  0  0  0
   -0.0396   -1.5325    1.3069 C   0  0  0  0  0  0  0  0  0  0  0  0
    0.5687   -1.3645    0.0537 C   0  0  0  0  0  0  0  0  0  0  0  0
   -0.2284   -1.4676   -1.0960 C   0  0  0  0  0  0  0  0  0  0  0  0
   -1.5838   -1.7978   -0.9953 C   0  0  0  0  0  0  0  0  0  0  0  0
    2.0487   -1.0505   -0.0390 C   0  0  0  0  0  0  0  0  0  0  0  0
    2.8988   -2.1144   -0.7641 C   0  0  1  0  0  0  0  0  0  0  0  0
    2.5899   -2.2048   -1.8107 H   0  0  0  0  0  0  0  0  0  0  0  0
    4.3819   -1.6876   -0.7913 C   0  0  0  0  0  0  0  0  0  0  0  0
    4.7952   -0.5566   -0.9564 O   0  0  0  0  0  0  0  0  0  0  0  0
    5.2002   -2.7683   -0.6427 O   0  0  0  0  0  0  0  0  0  0  0  0
    2.8305   -3.4866   -0.1626 N   0  0  0  0  0  0  0  0  0  0  0  0
   -3.2230   -2.2406    0.3324 H   0  0  0  0  0  0  0  0  0  0  0  0
   -1.8602   -1.9581    2.3840 H   0  0  0  0  0  0  0  0  0  0  0  0
    0.5376   -1.4171    2.2217 H   0  0  0  0  0  0  0  0  0  0  0  0
    0.1911   -1.2827   -2.0825 H   0  0  0  0  0  0  0  0  0  0  0  0
   -2.1878   -1.9013   -1.8939 H   0  0  0  0  0  0  0  0  0  0  0  0
    2.4527   -0.8817    0.9682 H   0  0  0  0  0  0  0  0  0  0  0  0
    2.1522   -0.0867   -0.5561 H   0  0  0  0  0  0  0  0  0  0  0  0
    4.6006   -3.5482   -0.5287 H   0  0  0  0  0  0  0  0  0  0  0  0
    1.8734   -3.8284   -0.3049 H   0  0  0  0  0  0  0  0  0  0  0  0
    2.9055   -3.3998    0.8564 H   0  0  0  0  0  0  0  0  0  0  0  0
  1  2  2  0  0  0  0
  1  6  1  0  0  0  0
  1 14  1  0  0  0  0
  2  3  1  0  0  0  0
  2 15  1  0  0  0  0
  3  4  2  0  0  0  0
  3 16  1  0  0  0  0
  4  5  1  0  0  0  0
  4  7  1  0  0  0  0
  5  6  2  0  0  0  0
  5 17  1  0  0  0  0
  6 18  1  0  0  0  0
  7  8  1  0  0  0  0
  7 19  1  0  0  0  0
  7 20  1  0  0  0  0
  8  9  1  6  0  0  0
  8 10  1  0  0  0  0
  8 13  1  0  0  0  0
 10 11  2  0  0  0  0
 10 12  1  0  0  0  0
 12 21  1  0  0  0  0
 13 22  1  0  0  0  0
 13 23  1  0  0  0  0
M  END
$$$$
tyrosine
 OpenBabel11091307573D

 24 24  0  0  1  0  0  0  0  0999 V2000
    1.8681    0.6849   -0.9362 N   0  0  0  0  0  0  0  0  0  0  0  0
    1.4025    0.7206    0.4726 C   0  0  1  0  0  0  0  0  0  0  0  0
    0.3179    0.5651    0.4698 H   0  0  0  0  0  0  0  0  0  0  0  0
    2.0936   -0.3740    1.3054 C   0  0  0  0  0  0  0  0  0  0  0  0
    1.6552   -0.4244    2.7516 C   0  0  0  0  0  0  0  0  0  0  0  0
    2.3447    0.3154    3.7256 C   0  0  0  0  0  0  0  0  0  0  0  0
    1.9362    0.2916    5.0608 C   0  0  0  0  0  0  0  0  0  0  0  0
    0.8400   -0.4813    5.4254 C   0  0  0  0  0  0  0  0  0  0  0  0
    0.4061   -0.5337    6.7170 O   0  0  0  0  0  0  0  0  0  0  0  0
    0.1497   -1.2273    4.4778 C   0  0  0  0  0  0  0  0  0  0  0  0
    0.5526   -1.1968    3.1408 C   0  0  0  0  0  0  0  0  0  0  0  0
    1.6946    2.1080    1.0523 C   0  0  0  0  0  0  0  0  0  0  0  0
    0.5820    2.7476    1.4722 O   0  0  0  0  0  0  0  0  0  0  0  0
    2.7909    2.6339    1.1587 O   0  0  0  0  0  0  0  0  0  0  0  0
    1.6993   -0.2395   -1.3283 H   0  0  0  0  0  0  0  0  0  0  0  0
    2.8808    0.8253   -0.9500 H   0  0  0  0  0  0  0  0  0  0  0  0
    3.1850   -0.2541    1.2720 H   0  0  0  0  0  0  0  0  0  0  0  0
    1.8944   -1.3545    0.8507 H   0  0  0  0  0  0  0  0  0  0  0  0
    3.2068    0.9206    3.4487 H   0  0  0  0  0  0  0  0  0  0  0  0
    2.4826    0.8773    5.7931 H   0  0  0  0  0  0  0  0  0  0  0  0
    0.9686    0.0466    7.2556 H   0  0  0  0  0  0  0  0  0  0  0  0
   -0.7021   -1.8302    4.7798 H   0  0  0  0  0  0  0  0  0  0  0  0
    0.0013   -1.7851    2.4110 H   0  0  0  0  0  0  0  0  0  0  0  0
    0.9129    3.6023    1.8156 H   0  0  0  0  0  0  0  0  0  0  0  0
  1  2  1  0  0  0  0
  1 15  1  0  0  0  0
  1 16  1  0  0  0  0
  2  3  1  1  0  0  0
  2  4  1  0  0  0  0
  2 12  1  0  0  0  0
  4  5  1  0  0  0  0
  4 17  1  0  0  0  0
  4 18  1  0  0  0  0
  5  6  2  0  0  0  0
  5 11  1  0  0  0  0
  6  7  1  0  0  0  0
  6 19  1  0  0  0  0
  7  8  2  0  0  0  0
  7 20  1  0  0  0  0
  8  9  1  0  0  0  0
  8 10  1  0  0  0  0
  9 21  1  0  0  0  0
 10 11  2  0  0  0  0
 10 22  1  0  0  0  0
 11 23  1  0  0  0  0
 12 13  1  0  0  0  0
 12 14  2  0  0  0  0
 13 24  1  0  0  0  0
M  END
$$$$
trptophan
 OpenBabel11091307573D

 24 24  0  0  1  0  0  0  0  0999 V2000
    2.4854    0.7778   -0.9382 N   0  0  0  0  0  0  0  0  0  0  0  0
    2.0973    0.1015    0.3261 C   0  0  1  0  0  0  0  0  0  0  0  0
    1.0056    0.0115    0.3220 H   0  0  0  0  0  0  0  0  0  0  0  0
    2.7479   -1.2901    0.4609 C   0  0  0  0  0  0  0  0  0  0  0  0
    2.3511   -2.0651    1.7028 C   0  0  0  0  0  0  0  0  0  0  0  0
    3.3198   -2.4204    2.6559 C   0  0  0  0  0  0  0  0  0  0  0  0
    2.9666   -3.1289    3.8096 C   0  0  0  0  0  0  0  0  0  0  0  0
    1.6398   -3.4888    4.0124 C   0  0  0  0  0  0  0  0  0  0  0  0
    1.2474   -4.1694    5.1270 O   0  0  0  0  0  0  0  0  0  0  0  0
    0.6689   -3.1656    3.0733 C   0  0  0  0  0  0  0  0  0  0  0  0
    1.0229   -2.4620    1.9176 C   0  0  0  0  0  0  0  0  0  0  0  0
    2.5171    1.0024    1.4926 C   0  0  0  0  0  0  0  0  0  0  0  0
    1.4780    1.3668    2.2730 O   0  0  0  0  0  0  0  0  0  0  0  0
    3.6416    1.4163    1.7136 O   0  0  0  0  0  0  0  0  0  0  0  0
    2.3599    0.1501   -1.7285 H   0  0  0  0  0  0  0  0  0  0  0  0
    3.4811    1.0078   -0.8961 H   0  0  0  0  0  0  0  0  0  0  0  0
    3.8413   -1.1895    0.4319 H   0  0  0  0  0  0  0  0  0  0  0  0
    2.4814   -1.9055   -0.4091 H   0  0  0  0  0  0  0  0  0  0  0  0
    4.3632   -2.1485    2.5081 H   0  0  0  0  0  0  0  0  0  0  0  0
    3.7356   -3.3879    4.5307 H   0  0  0  0  0  0  0  0  0  0  0  0
    2.0249   -4.3234    5.6882 H   0  0  0  0  0  0  0  0  0  0  0  0
   -0.3630   -3.4625    3.2401 H   0  0  0  0  0  0  0  0  0  0  0  0
    0.2486   -2.2323    1.1893 H   0  0  0  0  0  0  0  0  0  0  0  0
    1.8735    1.9885    2.9173 H   0  0  0  0  0  0  0  0  0  0  0  0
  1  2  1  0  0  0  0
  1 15  1  0  0  0  0
  1 16  1  0  0  0  0
  2  3  1  1  0  0  0
  2  4  1  0  0  0  0
  2 12  1  0  0  0  0
  4  5  1  0  0  0  0
  4 17  1  0  0  0  0
  4 18  1  0  0  0  0
  5  6  2  0  0  0  0
  5 11  1  0  0  0  0
  6  7  1  0  0  0  0
  6 19  1  0  0  0  0
  7  8  2  0  0  0  0
  7 20  1  0  0  0  0
  8  9  1  0  0  0  0
  8 10  1  0  0  0  0
  9 21  1  0  0  0  0
 10 11  2  0  0  0  0
 10 22  1  0  0  0  0
 11 23  1  0  0  0  0
 12 13  1  0  0  0  0
 12 14  2  0  0  0  0
 13 24  1  0  0  0  0
M  END
$$$$
methionine
 OpenBabel11091307573D

 20 19  0  0  1  0  0  0  0  0999 V2000
    0.6715   -2.4167   -2.6803 C   0  0  0  0  0  0  0  0  0  0  0  0
    2.4234   -2.8541   -2.4580 S   0  0  0  0  0  0  0  0  0  0  0  0
    3.1056   -1.1848   -2.1856 C   0  0  0  0  0  0  0  0  0  0  0  0
    4.6377   -1.1601   -2.0114 C   0  0  0  0  0  0  0  0  0  0  0  0
    5.4456   -1.6503   -3.2273 C   0  0  3  0  0  0  0  0  0  0  0  0
    5.1939   -0.7795   -4.4859 C   0  0  0  0  0  0  0  0  0  0  0  0
    4.1678   -0.1952   -4.7569 O   0  0  0  0  0  0  0  0  0  0  0  0
    6.2744   -0.7673   -5.3130 O   0  0  0  0  0  0  0  0  0  0  0  0
    6.9183   -1.6603   -2.9554 N   0  0  0  0  0  0  0  0  0  0  0  0
    0.0557   -3.2963   -2.4701 H   0  0  0  0  0  0  0  0  0  0  0  0
    0.4799   -2.1027   -3.7104 H   0  0  0  0  0  0  0  0  0  0  0  0
    0.3687   -1.6199   -1.9950 H   0  0  0  0  0  0  0  0  0  0  0  0
    2.6420   -0.7835   -1.2791 H   0  0  0  0  0  0  0  0  0  0  0  0
    2.7885   -0.5390   -3.0049 H   0  0  0  0  0  0  0  0  0  0  0  0
    4.9047   -1.7498   -1.1222 H   0  0  0  0  0  0  0  0  0  0  0  0
    4.9268   -0.1249   -1.7806 H   0  0  0  0  0  0  0  0  0  0  0  0
    5.1718   -2.6776   -3.4852 H   0  0  0  0  0  0  0  0  0  0  0  0
    6.9927   -1.2695   -4.8723 H   0  0  0  0  0  0  0  0  0  0  0  0
    7.1397   -0.8868   -2.3195 H   0  0  0  0  0  0  0  0  0  0  0  0
    7.1375   -2.4995   -2.4104 H   0  0  0  0  0  0  0  0  0  0  0  0
  1  2  1  0  0  0  0
  1 10  1  0  0  0  0
  1 11  1  0  0  0  0
  1 12  1  0  0  0  0
  2  3  1  0  0  0  0
  3  4  1  0  0  0  0
  3 13  1  0  0  0  0
  3 14  1  0  0  0  0
  4  5  1  0  0  0  0
  4 15  1  0  0  0  0
  4 16  1  0  0  0  0
  5  6  1  0  0  0  0
  5  9  1  0  0  0  0
  5 17  1  0  0  0  0
  6  7  2  0  0  0  0
  6  8  1  0  0  0  0
  8 18  1  0  0  0  0
  9 19  1  0  0  0  0
  9 20  1  0  0  0  0
M  END
$$$$
cytosine
 OpenBabel11091307573D

 13 13  0  0  0  0  0  0  0  0999 V2000
   -1.4155   -0.1346    0.0101 C   0  0  0  0  0  0  0  0  0  0  0  0
   -0.6611    1.1273    0.0261 C   0  0  0  0  0  0  0  0  0  0  0  0
    0.6223    1.2397    0.0237 N   0  0  0  0  0  0  0  0  0  0  0  0
    1.3562    0.0815    0.0194 C   0  0  0  0  0  0  0  0  0  0  0  0
    2.5824    0.0689    0.0043 O   0  0  0  0  0  0  0  0  0  0  0  0
    0.6770   -1.1136    0.0319 N   0  0  0  0  0  0  0  0  0  0  0  0
    1.2688   -1.9286    0.0705 H   0  0  0  0  0  0  0  0  0  0  0  0
   -0.6760   -1.2491    0.0257 C   0  0  0  0  0  0  0  0  0  0  0  0
   -1.2255   -2.5035    0.0307 N   0  0  0  0  0  0  0  0  0  0  0  0
   -2.4944   -0.1091    0.0045 H   0  0  0  0  0  0  0  0  0  0  0  0
   -1.2766    2.0419    0.0426 H   0  0  0  0  0  0  0  0  0  0  0  0
   -0.6284   -3.2098   -0.3881 H   0  0  0  0  0  0  0  0  0  0  0  0
   -2.1803   -2.5475   -0.3153 H   0  0  0  0  0  0  0  0  0  0  0  0
  1  2  1  0  0  0  0
  1  8  2  0  0  0  0
  1 10  1  0  0  0  0
  2  3  2  0  0  0  0
  2 11  1  0  0  0  0
  3  4  1  0  0  0  0
  4  5  2  0  0  0  0
  4  6  1  0  0  0  0
  6  7  1  0  0  0  0
  6  8  1  0  0  0  0
  8  9  1  0  0  0  0
  9 12  1  0  0  0  0
  9 13  1  0  0  0  0
M  END
$$$$
serine
 OpenBabel11091307573D

 14 13  0  0  1  0  0  0  0  0999 V2000
    1.2426   -0.2063    0.1195 C   0  0  0  0  0  0  0  0  0  0  0  0
    0.8617   -1.3974   -0.7693 C   0  0  1  0  0  0  0  0  0  0  0  0
    1.4231   -1.3900   -1.7102 H   0  0  0  0  0  0  0  0  0  0  0  0
    1.2193   -2.7056   -0.0543 C   0  0  0  0  0  0  0  0  0  0  0  0
    2.3251   -2.9883    0.3842 O   0  0  0  0  0  0  0  0  0  0  0  0
    0.1533   -3.5487    0.0054 O   0  0  0  0  0  0  0  0  0  0  0  0
   -0.6098   -1.3985   -1.0693 N   0  0  0  0  0  0  0  0  0  0  0  0
    0.2125    0.0068    1.0940 O   0  0  0  0  0  0  0  0  0  0  0  0
    1.3093    0.7070   -0.4803 H   0  0  0  0  0  0  0  0  0  0  0  0
    2.1934   -0.3628    0.6388 H   0  0  0  0  0  0  0  0  0  0  0  0
   -0.5849   -3.0618   -0.4432 H   0  0  0  0  0  0  0  0  0  0  0  0
   -0.7703   -0.6856   -1.7866 H   0  0  0  0  0  0  0  0  0  0  0  0
   -1.0422   -0.9702   -0.2320 H   0  0  0  0  0  0  0  0  0  0  0  0
    0.5922    0.5774    1.7870 H   0  0  0  0  0  0  0  0  0  0  0  0
  1  2  1  0  0  0  0
  1  8  1  0  0  0  0
  1  9  1  0  0  0  0
  1 10  1  0  0  0  0
  2  3  1  6  0  0  0
  2  4  1  0  0  0  0
  2  7  1  0  0  0  0
  4  5  2  0  0  0  0
  4  6  1  0  0  0  0
  6 11  1  0  0  0  0
  7 12  1  0  0  0  0
  7 13  1  0  0  0  0
  8 14  1  0  0  0  0
M  END
$$$$
threonine
 OpenBabel11091307573D

 17 16  0  0  1  0  0  0  0  0999 V2000
    0.9742   -0.0083    0.1389 C   0  0  0  0  0  0  0  0  0  0  0  0
    2.4543   -0.0365    0.5003 C   0  0  2  0  0  0  0  0  0  0  0  0
    2.9621    0.8319    0.0652 H   0  0  0  0  0  0  0  0  0  0  0  0
    3.1369   -1.3466    0.0579 C   0  0  1  0  0  0  0  0  0  0  0  0
    2.9171   -1.5885   -0.9882 H   0  0  0  0  0  0  0  0  0  0  0  0
    4.6611   -1.1858    0.1579 C   0  0  0  0  0  0  0  0  0  0  0  0
    5.3126   -0.3017   -0.3802 O   0  0  0  0  0  0  0  0  0  0  0  0
    5.2187   -2.1798    0.8982 O   0  0  0  0  0  0  0  0  0  0  0  0
    2.7241   -2.5073    0.9207 N   0  0  0  0  0  0  0  0  0  0  0  0
    2.5400    0.0622    1.9312 O   0  0  0  0  0  0  0  0  0  0  0  0
    0.4171   -0.7815    0.6799 H   0  0  0  0  0  0  0  0  0  0  0  0
    0.8198   -0.1462   -0.9349 H   0  0  0  0  0  0  0  0  0  0  0  0
    0.5326    0.9498    0.4345 H   0  0  0  0  0  0  0  0  0  0  0  0
    4.4567   -2.7484    1.1808 H   0  0  0  0  0  0  0  0  0  0  0  0
    1.7989   -2.8075    0.6010 H   0  0  0  0  0  0  0  0  0  0  0  0
    2.5234   -2.0867    1.8439 H   0  0  0  0  0  0  0  0  0  0  0  0
    2.4102    1.0008    2.1609 H   0  0  0  0  0  0  0  0  0  0  0  0
  1 11  1  0  0  0  0
  1 12  1  0  0  0  0
  1 13  1  0  0  0  0
  2  4  1  0  0  0  0
  2 10  1  0  0  0  0
  2  3  1  6  0  0  0
  2  1  1  0  0  0  0
  4  5  1  6  0  0  0
  4  6  1  0  0  0  0
  4  9  1  0  0  0  0
  6  7  2  0  0  0  0
  6  8  1  0  0  0  0
  8 14  1  0  0  0  0
  9 15  1  0  0  0  0
  9 16  1  0  0  0  0
 10 17  1  0  0  0  0
M  END
$$$$
aspartate
 OpenBabel11091307573D

 16 15  0  0  1  0  0  0  0  0999 V2000
    3.3281   -2.5954    3.6096 O   0  0  0  0  0  0  0  0  0  0  0  0
    4.2560   -1.8522    3.3384 C   0  0  0  0  0  0  0  0  0  0  0  0
    5.3616   -1.7961    4.1048 O   0  0  0  0  0  0  0  0  0  0  0  0
    4.2090   -0.8900    2.1715 C   0  0  0  0  0  0  0  0  0  0  0  0
    5.1849   -1.2164    1.0457 C   0  0  3  0  0  0  0  0  0  0  0  0
    4.8604   -0.4382   -0.1912 N   0  0  0  0  0  0  0  0  0  0  0  0
    6.6284   -0.8473    1.4243 C   0  0  0  0  0  0  0  0  0  0  0  0
    7.0744   -0.8591    2.5646 O   0  0  0  0  0  0  0  0  0  0  0  0
    7.3595   -0.4907    0.3425 O   0  0  0  0  0  0  0  0  0  0  0  0
    6.1067   -1.2368    3.7781 H   0  0  0  0  0  0  0  0  0  0  0  0
    4.3202    0.1321    2.5485 H   0  0  0  0  0  0  0  0  0  0  0  0
    3.1851   -0.9640    1.7764 H   0  0  0  0  0  0  0  0  0  0  0  0
    5.1711   -2.2832    0.7973 H   0  0  0  0  0  0  0  0  0  0  0  0
    4.7061    0.5433    0.0708 H   0  0  0  0  0  0  0  0  0  0  0  0
    3.9474   -0.7473   -0.5399 H   0  0  0  0  0  0  0  0  0  0  0  0
    6.7387   -0.4805   -0.4288 H   0  0  0  0  0  0  0  0  0  0  0  0
  1  2  2  0  0  0  0
  2  3  1  0  0  0  0
  2  4  1  0  0  0  0
  3 10  1  0  0  0  0
  4  5  1  0  0  0  0
  4 11  1  0  0  0  0
  4 12  1  0  0  0  0
  5  6  1  0  0  0  0
  5  7  1  0  0  0  0
  5 13  1  0  0  0  0
  6 14  1  0  0  0  0
  6 15  1  0  0  0  0
  7  8  2  0  0  0  0
  7  9  1  0  0  0  0
  9 16  1  0  0  0  0
M  END
$$$$
glutamic acid
 OpenBabel11091307583D

 19 18  0  0  1  0  0  0  0  0999 V2000
    1.4736    0.0670    0.7866 C   0  0  0  0  0  0  0  0  0  0  0  0
    0.8438   -0.3696    2.1152 C   0  0  0  0  0  0  0  0  0  0  0  0
    1.4356   -1.6683    2.6032 C   0  0  0  0  0  0  0  0  0  0  0  0
    1.8444   -2.5532    1.8627 O   0  0  0  0  0  0  0  0  0  0  0  0
    1.4531   -1.7801    3.9484 O   0  0  0  0  0  0  0  0  0  0  0  0
    2.9937    0.2688    0.8852 C   0  0  3  0  0  0  0  0  0  0  0  0
    3.6019    0.6922   -0.4675 C   0  0  0  0  0  0  0  0  0  0  0  0
    4.1761    1.7539   -0.6539 O   0  0  0  0  0  0  0  0  0  0  0  0
    3.4729   -0.2410   -1.4402 O   0  0  0  0  0  0  0  0  0  0  0  0
    3.2707    1.2961    1.9168 N   0  0  0  0  0  0  0  0  0  0  0  0
    0.9936    0.9966    0.4529 H   0  0  0  0  0  0  0  0  0  0  0  0
    1.2432   -0.6803    0.0168 H   0  0  0  0  0  0  0  0  0  0  0  0
   -0.2345   -0.5163    1.9932 H   0  0  0  0  0  0  0  0  0  0  0  0
    0.9897    0.4117    2.8682 H   0  0  0  0  0  0  0  0  0  0  0  0
    1.1252   -0.9865    4.4152 H   0  0  0  0  0  0  0  0  0  0  0  0
    3.5022   -0.6523    1.1855 H   0  0  0  0  0  0  0  0  0  0  0  0
    3.0424   -1.0703   -1.1559 H   0  0  0  0  0  0  0  0  0  0  0  0
    3.0477    2.2107    1.5069 H   0  0  0  0  0  0  0  0  0  0  0  0
    4.2852    1.3480    2.0445 H   0  0  0  0  0  0  0  0  0  0  0  0
  1  2  1  0  0  0  0
  1  6  1  0  0  0  0
  1 11  1  0  0  0  0
  1 12  1  0  0  0  0
  2  3  1  0  0  0  0
  2 13  1  0  0  0  0
  2 14  1  0  0  0  0
  3  4  2  0  0  0  0
  3  5  1  0  0  0  0
  5 15  1  0  0  0  0
  6  7  1  0  0  0  0
  6 10  1  0  0  0  0
  6 16  1  0  0  0  0
  7  8  2  0  0  0  0
  7  9  1  0  0  0  0
  9 17  1  0  0  0  0
 10 18  1  0  0  0  0
 10 19  1  0  0  0  0
M  END
$$$$
histadine
 OpenBabel11091307583D

 20 20  0  0  1  0  0  0  0  0999 V2000
    1.7459   -0.4361   -1.6654 O   0  0  0  0  0  0  0  0  0  0  0  0
    1.7056    0.7812   -1.6601 C   0  0  0  0  0  0  0  0  0  0  0  0
    0.6365    1.4927   -1.2077 O   0  0  0  0  0  0  0  0  0  0  0  0
    2.8279    1.7124   -2.1365 C   0  0  1  0  0  0  0  0  0  0  0  0
    2.9942    1.5164   -3.2020 H   0  0  0  0  0  0  0  0  0  0  0  0
    2.3394    3.1339   -1.9992 N   0  0  0  0  0  0  0  0  0  0  0  0
    4.0961    1.4189   -1.3195 C   0  0  0  0  0  0  0  0  0  0  0  0
    5.2937    2.1988   -1.7583 C   0  0  0  0  0  0  0  0  0  0  0  0
    6.5769    2.1629   -1.2540 C   0  0  0  0  0  0  0  0  0  0  0  0
    7.2911    3.0486   -2.0132 N   0  0  0  0  0  0  0  0  0  0  0  0
    6.4329    3.5941   -2.9236 C   0  0  0  0  0  0  0  0  0  0  0  0
    5.2192    3.1130   -2.7870 N   0  0  0  0  0  0  0  0  0  0  0  0
    0.9100    2.4436   -1.2896 H   0  0  0  0  0  0  0  0  0  0  0  0
    2.0012    3.4121   -2.9284 H   0  0  0  0  0  0  0  0  0  0  0  0
    3.1961    3.7048   -1.9193 H   0  0  0  0  0  0  0  0  0  0  0  0
    4.3392    0.3511   -1.4018 H   0  0  0  0  0  0  0  0  0  0  0  0
    3.9115    1.6110   -0.2545 H   0  0  0  0  0  0  0  0  0  0  0  0
    7.0310    1.5971   -0.4524 H   0  0  0  0  0  0  0  0  0  0  0  0
    8.2752    3.2627   -1.9244 H   0  0  0  0  0  0  0  0  0  0  0  0
    6.7470    4.3287   -3.6535 H   0  0  0  0  0  0  0  0  0  0  0  0
  1  2  2  0  0  0  0
  2  3  1  0  0  0  0
  2  4  1  0  0  0  0
  3 13  1  0  0  0  0
  4  5  1  6  0  0  0
  4  6  1  0  0  0  0
  4  7  1  0  0  0  0
  6 14  1  0  0  0  0
  6 15  1  0  0  0  0
  7  8  1  0  0  0  0
  7 16  1  0  0  0  0
  7 17  1  0  0  0  0
  8  9  2  0  0  0  0
  8 12  1  0  0  0  0
  9 10  1  0  0  0  0
  9 18  1  0  0  0  0
 10 11  1  0  0  0  0
 10 19  1  0  0  0  0
 11 12  2  0  0  0  0
 11 20  1  0  0  0  0
M  END
$$$$
lysine
 OpenBabel11091307583D

 24 23  0  0  1  0  0  0  0  0999 V2000
    0.8591   -0.1114   -0.0362 C   0  0  0  0  0  0  0  0  0  0  0  0
    0.3219   -0.9457   -1.2017 C   0  0  0  0  0  0  0  0  0  0  0  0
   -1.2058   -0.9807   -1.2121 C   0  0  0  0  0  0  0  0  0  0  0  0
   -1.6778   -1.7893   -2.3307 N   0  0  0  0  0  0  0  0  0  0  0  0
    2.3937   -0.0805   -0.0383 C   0  0  0  0  0  0  0  0  0  0  0  0
    2.9854    0.7047    1.1402 C   0  0  3  0  0  0  0  0  0  0  0  0
    4.5235    0.6895    1.0557 C   0  0  0  0  0  0  0  0  0  0  0  0
    5.1902    1.5305    0.4616 O   0  0  0  0  0  0  0  0  0  0  0  0
    5.0956   -0.3481    1.7093 O   0  0  0  0  0  0  0  0  0  0  0  0
    2.4926    2.0976    1.1553 N   0  0  0  0  0  0  0  0  0  0  0  0
    0.5014   -0.5277    0.9131 H   0  0  0  0  0  0  0  0  0  0  0  0
    0.4608    0.9072   -0.1147 H   0  0  0  0  0  0  0  0  0  0  0  0
    0.7148   -1.9675   -1.1287 H   0  0  0  0  0  0  0  0  0  0  0  0
    0.6881   -0.5251   -2.1468 H   0  0  0  0  0  0  0  0  0  0  0  0
   -1.6109    0.0334   -1.2997 H   0  0  0  0  0  0  0  0  0  0  0  0
   -1.5807   -1.4112   -0.2774 H   0  0  0  0  0  0  0  0  0  0  0  0
   -1.3616   -1.3772   -3.2081 H   0  0  0  0  0  0  0  0  0  0  0  0
   -2.6965   -1.7666   -2.3588 H   0  0  0  0  0  0  0  0  0  0  0  0
    2.7491    0.3402   -0.9887 H   0  0  0  0  0  0  0  0  0  0  0  0
    2.7721   -1.1107   -0.0035 H   0  0  0  0  0  0  0  0  0  0  0  0
    2.6857    0.2466    2.0890 H   0  0  0  0  0  0  0  0  0  0  0  0
    4.4652   -0.9378    2.1647 H   0  0  0  0  0  0  0  0  0  0  0  0
    2.8051    2.5549    0.2936 H   0  0  0  0  0  0  0  0  0  0  0  0
    2.9732    2.6107    1.8968 H   0  0  0  0  0  0  0  0  0  0  0  0
  1  2  1  0  0  0  0
  1  5  1  0  0  0  0
  1 11  1  0  0  0  0
  1 12  1  0  0  0  0
  2  3  1  0  0  0  0
  2 13  1  0  0  0  0
  2 14  1  0  0  0  0
  3  4  1  0  0  0  0
  3 15  1  0  0  0  0
  3 16  1  0  0  0  0
  4 17  1  0  0  0  0
  4 18  1  0  0  0  0
  5  6  1  0  0  0  0
  5 19  1  0  0  0  0
  5 20  1  0  0  0  0
  6  7  1  0  0  0  0
  6 10  1  0  0  0  0
  6 21  1  0  0  0  0
  7  8  2  0  0  0  0
  7  9  1  0  0  0  0
  9 22  1  0  0  0  0
 10 23  1  0  0  0  0
 10 24  1  0  0  0  0
M  END
$$$$
arganine
 OpenBabel11091307583D

 28 27  0  0  1  0  0  0  0  0999 V2000
    0.9141    1.0181    0.1023 N   0  0  0  0  0  0  0  0  0  0  0  0
    2.3481    0.6342    0.2572 C   0  0  3  0  0  0  0  0  0  0  0  0
    3.1281    0.7908   -1.0739 C   0  0  0  0  0  0  0  0  0  0  0  0
    2.5856   -0.0979   -2.2227 C   0  0  0  0  0  0  0  0  0  0  0  0
    3.4270    0.0064   -3.5207 C   0  0  0  0  0  0  0  0  0  0  0  0
    2.9034   -0.8758   -4.5868 N   0  0  0  0  0  0  0  0  0  0  0  0
    1.9528   -0.5780   -4.7874 H   0  0  0  0  0  0  0  0  0  0  0  0
    3.5943   -0.7449   -5.8330 C   0  0  3  0  0  0  0  0  0  0  0  0
    4.8826   -1.3194   -5.7489 N   0  0  0  0  0  0  0  0  0  0  0  0
    4.8258   -2.2062   -5.2408 H   0  0  0  0  0  0  0  0  0  0  0  0
    3.0210   -1.7203   -6.6964 N   0  0  0  0  0  0  0  0  0  0  0  0
    3.8413   -1.9324   -7.2682 H   0  0  0  0  0  0  0  0  0  0  0  0
    2.9831   -2.5367   -6.0916 H   0  0  0  0  0  0  0  0  0  0  0  0
    2.9494    1.4730    1.4643 C   0  0  3  0  0  0  0  0  0  0  0  0
    2.6620    2.7489    1.3794 O   0  0  0  0  0  0  0  0  0  0  0  0
    2.2216    1.1156    2.6371 O   0  0  0  0  0  0  0  0  0  0  0  0
    1.8287    1.9985    2.8038 H   0  0  0  0  0  0  0  0  0  0  0  0
    1.0013    2.0416    0.0237 H   0  0  0  0  0  0  0  0  0  0  0  0
    0.5733    0.9474    1.0653 H   0  0  0  0  0  0  0  0  0  0  0  0
    2.3608   -0.4235    0.5499 H   0  0  0  0  0  0  0  0  0  0  0  0
    4.1775    0.5269   -0.8895 H   0  0  0  0  0  0  0  0  0  0  0  0
    3.1181    1.8398   -1.3943 H   0  0  0  0  0  0  0  0  0  0  0  0
    1.5492    0.1873   -2.4403 H   0  0  0  0  0  0  0  0  0  0  0  0
    2.5694   -1.1412   -1.8837 H   0  0  0  0  0  0  0  0  0  0  0  0
    4.4598   -0.2692   -3.2822 H   0  0  0  0  0  0  0  0  0  0  0  0
    3.4215    1.0501   -3.8584 H   0  0  0  0  0  0  0  0  0  0  0  0
    3.5454    0.2507   -6.2801 H   0  0  0  0  0  0  0  0  0  0  0  0
    3.9793    1.1067    1.6305 H   0  0  0  0  0  0  0  0  0  0  0  0
  1  2  1  0  0  0  0
  1 18  1  0  0  0  0
  1 19  1  0  0  0  0
  2  3  1  0  0  0  0
  2 14  1  0  0  0  0
  2 20  1  0  0  0  0
  3  4  1  0  0  0  0
  3 21  1  0  0  0  0
  3 22  1  0  0  0  0
  4  5  1  0  0  0  0
  4 23  1  0  0  0  0
  4 24  1  0  0  0  0
  5  6  1  0  0  0  0
  5 25  1  0  0  0  0
  5 26  1  0  0  0  0
  6  7  1  0  0  0  0
  6  8  1  0  0  0  0
  8  9  1  0  0  0  0
  8 11  1  0  0  0  0
  8 27  1  0  0  0  0
  9 10  1  0  0  0  0
 11 12  1  0  0  0  0
 11 13  1  0  0  0  0
 14 15  1  0  0  0  0
 14 16  1  0  0  0  0
 14 28  1  0  0  0  0
 16 17  1  0  0  0  0
M  RAD  2   9   2  15   2
M  END
$$$$
asparagine
 OpenBabel11091307583D

 17 16  0  0  1  0  0  0  0  0999 V2000
    6.7988   -3.2711    0.2510 O   0  0  0  0  0  0  0  0  0  0  0  0
    6.4341   -2.7101    1.2796 C   0  0  0  0  0  0  0  0  0  0  0  0
    6.4379   -3.3775    2.4644 N   0  0  0  0  0  0  0  0  0  0  0  0
    6.0241   -1.2489    1.3066 C   0  0  0  0  0  0  0  0  0  0  0  0
    4.5407   -1.0288    1.6069 C   0  0  2  0  0  0  0  0  0  0  0  0
    3.9079   -1.6565    0.9702 H   0  0  0  0  0  0  0  0  0  0  0  0
    4.1594    0.4066    1.3717 N   0  0  0  0  0  0  0  0  0  0  0  0
    4.2127   -1.3445    3.0827 C   0  0  0  0  0  0  0  0  0  0  0  0
    4.2746   -2.4437    3.6008 O   0  0  0  0  0  0  0  0  0  0  0  0
    3.8808   -0.2231    3.7748 O   0  0  0  0  0  0  0  0  0  0  0  0
    6.5978   -4.3755    2.4169 H   0  0  0  0  0  0  0  0  0  0  0  0
    5.8378   -3.0918    3.2385 H   0  0  0  0  0  0  0  0  0  0  0  0
    6.2525   -0.8543    0.3055 H   0  0  0  0  0  0  0  0  0  0  0  0
    6.6711   -0.7142    2.0111 H   0  0  0  0  0  0  0  0  0  0  0  0
    3.1433    0.4422    1.2267 H   0  0  0  0  0  0  0  0  0  0  0  0
    4.5478    0.7022    0.4705 H   0  0  0  0  0  0  0  0  0  0  0  0
    3.9537    0.5242    3.1352 H   0  0  0  0  0  0  0  0  0  0  0  0
  1  2  2  0  0  0  0
  2  3  1  0  0  0  0
  2  4  1  0  0  0  0
  3 11  1  0  0  0  0
  3 12  1  0  0  0  0
  4 13  1  0  0  0  0
  4 14  1  0  0  0  0
  5  7  1  0  0  0  0
  5  8  1  0  0  0  0
  5  6  1  6  0  0  0
  5  4  1  0  0  0  0
  7 15  1  0  0  0  0
  7 16  1  0  0  0  0
  8  9  2  0  0  0  0
  8 10  1  0  0  0  0
 10 17  1  0  0  0  0
M  END
$$$$
glutamine
 OpenBabel11091307583D

 20 19  0  0  1  0  0  0  0  0999 V2000
    2.4502    1.8340   -2.7268 O   0  0  0  0  0  0  0  0  0  0  0  0
    2.4057    0.6850   -3.1526 C   0  0  0  0  0  0  0  0  0  0  0  0
    2.0778    0.4155   -4.4447 N   0  0  0  0  0  0  0  0  0  0  0  0
    2.7732   -0.5183   -2.3197 C   0  0  0  0  0  0  0  0  0  0  0  0
    4.2636   -0.8563   -2.3921 C   0  0  0  0  0  0  0  0  0  0  0  0
    4.8342   -1.1363   -3.7904 C   0  0  3  0  0  0  0  0  0  0  0  0
    6.2882   -1.4706   -3.6746 N   0  0  0  0  0  0  0  0  0  0  0  0
    4.1248   -2.2981   -4.5123 C   0  0  0  0  0  0  0  0  0  0  0  0
    2.9344   -2.3476   -4.7558 O   0  0  0  0  0  0  0  0  0  0  0  0
    5.0116   -3.2661   -4.8873 O   0  0  0  0  0  0  0  0  0  0  0  0
    1.7785    1.1810   -5.0339 H   0  0  0  0  0  0  0  0  0  0  0  0
    1.9627   -0.5365   -4.7911 H   0  0  0  0  0  0  0  0  0  0  0  0
    2.1556   -1.3740   -2.6102 H   0  0  0  0  0  0  0  0  0  0  0  0
    2.4992   -0.2954   -1.2809 H   0  0  0  0  0  0  0  0  0  0  0  0
    4.4384   -1.7232   -1.7411 H   0  0  0  0  0  0  0  0  0  0  0  0
    4.8244   -0.0193   -1.9520 H   0  0  0  0  0  0  0  0  0  0  0  0
    4.7534   -0.2585   -4.4402 H   0  0  0  0  0  0  0  0  0  0  0  0
    6.4233   -2.0970   -2.8719 H   0  0  0  0  0  0  0  0  0  0  0  0
    6.7703   -0.6108   -3.3909 H   0  0  0  0  0  0  0  0  0  0  0  0
    5.9026   -2.9060   -4.6741 H   0  0  0  0  0  0  0  0  0  0  0  0
  1  2  2  0  0  0  0
  2  3  1  0  0  0  0
  2  4  1  0  0  0  0
  3 11  1  0  0  0  0
  3 12  1  0  0  0  0
  4  5  1  0  0  0  0
  4 13  1  0  0  0  0
  4 14  1  0  0  0  0
  5  6  1  0  0  0  0
  5 15  1  0  0  0  0
  5 16  1  0  0  0  0
  6  7  1  0  0  0  0
  6  8  1  0  0  0  0
  6 17  1  0  0  0  0
  7 18  1  0  0  0  0
  7 19  1  0  0  0  0
  8  9  2  0  0  0  0
  8 10  1  0  0  0  0
 10 20  1  0  0  0  0
M  END
$$$$
